LAMMPS (22 Oct 2020)
# Hydrogels Equilibration Script

variable fname string lammps.main.conf
variable fout string data.out
variable bond_length equal 1.122
variable bond_strength equal 2.5
variable lj_eps equal 1.0
variable lj_sig equal 1.0
variable lj_cut equal 1.122
variable T equal 0.05
variable steps equal 1000000
variable thermo equal 100000
variable dt equal 0.00012
variable global_cutoff equal 19
variable comm_cutoff equal "v_global_cutoff + 0.5"

variable delta equal 0.25
variable n_bins equal "floor(v_global_cutoff / v_delta)"

units		lj
special_bonds  lj 1.0 1.0 1.0
atom_style	bond
bond_style  harmonic
pair_style	lj/cut 1.122
pair_modify shift yes
read_data	lammps.main.conf
Reading data file ...
  orthogonal box = (-25.000000 -25.000000 -25.000000) to (25.000000 25.000000 25.000000)
  reading atoms ...
  2000 atoms
  scanning bonds ...
  reading bonds ...
  1297 bonds
Finding 1-2 1-3 1-4 neighbors ...
     4 = max # of 1-2 neighbors
     6 = max # of 1-3 neighbors
    16 = max # of 1-4 neighbors
    20 = max # of special neighbors

bond_coeff	* 2.5 1.122
pair_coeff	* * 1 1 1.122

comm_style tiled
comm_modify cutoff 19.5

group gel type 1 2
1000 atoms in group gel
group crosslinkers type 2
295 atoms in group crosslinkers

neighbor	0.4 bin
neigh_modify	every 1 delay 1 page 100000000 one 1000000

fix		1 all nve
fix		2 all langevin 0.05 0.05 10.0 904297
fix		3 gel recenter 0.0 0.0 0.0
fix   4 all balance 100000 1.1 rcb

# compute gyration radius
compute gyr gel gyration

# compute rdfs
# variable rdf_bins equal "v_global_cutoff / 0.5"

# compute density profile
# variable rho_bins equal "ceil(v_global_cutoff)"

minimize 0.0 1.0e-8 1000 100000
  update every 1 steps, delay 0 steps, check yes
Step Temp E_pair E_mol TotEng Press Volume
0            0 2.5266482e+11   0.03060115 2.5266482e+11 1.6170549e+10       125000
Loop time of 0.2812 on 2 procs for 440 steps with 2000 atoms

Minimization stats:
  Stopping criterion = linesearch alpha is zero
  Energy initial, next-to-last, final =
  Force two-norm initial, final = 1.2694161e+17 0.22674813
  Force max component initial, final = 7.2012044e+16 0.060203837
  Final line search alpha, max atom move = 0.001953125 0.00011758562
  Iterations, force evaluations = 440 2312

reset_timestep 0

thermo_style custom step temp press pe ke etotal c_gyr
thermo  100000
timestep	0.00012

dump out all custom 100000 dump.out id type mol x y z vx vy vz fx fy fz
write_data data.out pair ij
System init for write_data ...

run		1000000
Step Temp Press PotEng KinEng TotEng c_gyr
0            0 -3.5655795e-06 1.2655107e-05            0 1.2655107e-05    5.9509773
Averages over the last 6 of 11 rows, steps 500000 to 1000000:
Temp Press PotEng KinEng TotEng c_gyr
0.0504637 0.000449142 0.0212679 0.0756577 0.0969256 6.98017
Loop time of 155.44 on 2 procs for 1000000 steps with 2000 atoms
