LAMMPS (22 Oct 2020)
# Hydrogels Equilibration Script

variable fname string configs/gel-N150-X20-b20.1.lammps
variable fout string lammps.data.conf
variable bond_length equal 1.0
variable bond_strength equal 2.5
variable lj_eps equal 1.0
variable lj_sig equal 1.0
variable lj_cut equal 2.0
variable T equal 1.0
variable steps equal 1000000
variable thermo equal 100000
variable dt equal 0.012

units		lj
atom_style	bond
special_bonds   fene

read_data	configs/gel-N150-X20-b20.1.lammps
Reading data file ...
  orthogonal box = (-20.000000 -20.000000 -20.000000) to (20.000000 20.000000 20.000000)
  reading atoms ...
  42 atoms
  scanning bonds ...
  reading bonds ...
  43 bonds
Finding 1-2 1-3 1-4 neighbors ...
     4 = max # of 1-2 neighbors
     4 = max # of special neighbors

neighbor	0.4 bin
neigh_modify	every 1 delay 1

bond_style  harmonic
bond_coeff	* 2.5 1

pair_style	lj/cut 1.12
pair_modify	shift yes
pair_coeff	* * 1 1 2

fix		1 all nve
fix		2 all langevin 1 1 10.0 904297
fix		3 all recenter 0.0 0.0 0.0

minimize 0.0 1.0e-8 1000 100000
  update every 1 steps, delay 0 steps, check yes
Step Temp E_pair E_mol TotEng Press
0            0  -0.11301826       19.269    19.155982 -0.0092712761
Loop time of 0.0337942 on 1 procs for 1000 steps with 42 atoms

Minimization stats:
  Stopping criterion = max iterations
  Energy initial, next-to-last, final =
  Force two-norm initial, final = 129.42915 9.7156288e-05
  Force max component initial, final = 92.000742 3.4071796e-05
  Final line search alpha, max atom move = 1.0000000 3.4071796e-05
  Iterations, force evaluations = 1000 1873

reset_timestep 0

thermo  100000
timestep	0.012

run		1000000
Step Temp E_pair E_mol TotEng Press
0            0   -5.2239181   0.83125664   -4.3926615 5.7523878e-11
Averages over the last 6 of 11 rows, steps 500000 to 1000000:
Temp E_pair E_mol TotEng Press
0.956677 -1.85717 0.653491 0.197167 -0.000139907
Loop time of 22.9094 on 1 procs for 1000000 steps with 42 atoms

write_data lammps.data.conf pair ij
System init for write_data ...
