LAMMPS (22 Oct 2020)
# Hydrogels Equilibration Script

variable fname string /home/debesh/phd/hydrogel/0011-generate-ABC/configs/lammps.A17.conf
variable fout string data.out
variable bond_length equal 1.0
variable bond_strength equal 2.5
variable lj_eps equal 1.0
variable lj_sig equal 1.0
variable lj_cut equal 1.12
variable T equal 0.05
variable steps equal 500000
variable thermo equal 100000
variable dt equal 0.025
variable global_cutoff equal 40.0
variable comm_cutoff equal "v_global_cutoff + 0.4"

variable delta equal 0.5
variable n_bins equal "floor(v_global_cutoff / v_delta)"

units		lj
atom_style	bond
bond_style  harmonic
pair_style	lj/cut 1.12
read_data	/home/debesh/phd/hydrogel/0011-generate-ABC/configs/lammps.A17.conf
Reading data file ...
  orthogonal box = (-42.250000 -42.250000 -42.250000) to (42.250000 42.250000 42.250000)
  reading atoms ...
  4994 atoms
  reading velocities ...
  4994 velocities
  scanning bonds ...
  reading bonds ...
  5483 bonds
Finding 1-2 1-3 1-4 neighbors ...
     4 = max # of 1-2 neighbors
     6 = max # of 1-3 neighbors
    16 = max # of 1-4 neighbors
    19 = max # of special neighbors

bond_coeff	* 2.5 1
pair_coeff	* * 1 1 1.12

comm_modify cutoff 40.4

group crosslinkers type 2
496 atoms in group crosslinkers

neighbor	0.4 bin
neigh_modify	every 1 delay 1 page 100000000 one 1000000

fix		1 all nve
fix		2 all langevin 0.05 0.05 10.0 904297
fix		3 all recenter 0.0 0.0 0.0

# compute gyration radius
compute gyr all gyration

# compute rdfs
variable rdf_bins equal "v_global_cutoff / 0.5"
compute rdf_N all rdf 80 * * cutoff 40
compute rdf_X crosslinkers rdf 80 2 2 cutoff 40

# compute density profile
variable rho_bins equal "v_global_cutoff"
compute rho_N all chunk/atom bin/sphere 0 0 0 0.0 40 80 discard yes
compute rho_X crosslinkers chunk/atom bin/sphere 0 0 0 0.0 40 80 discard yes

minimize 0.0 1.0e-8 1000 100000
  update every 1 steps, delay 0 steps, check yes
Step Temp E_pair E_mol TotEng Press
0    1.0126263   -2.3349515    1.5451717   0.72885549  0.057158444
Loop time of 0.190766 on 8 procs for 10 steps with 4994 atoms

Minimization stats:
  Stopping criterion = linesearch alpha is zero
  Energy initial, next-to-last, final =
  Force two-norm initial, final = 2035.6688 418.90449
  Force max component initial, final = 121.65790 13.813189
  Final line search alpha, max atom move = 2.1575266e-10 2.9802322e-09
  Iterations, force evaluations = 10 182

reset_timestep 0

thermo  100000
timestep	0.025

fix rdf_out all ave/time 10 1000 500000 c_rdf_N[*] c_rdf_X[*] file out.rdf mode vector
fix gyr_out all ave/time 10 1000 500000 c_gyr file out.gyr
fix rho_out_N all ave/histo 10 1000 500000 0.0 40 40 c_rho_N[*] file out.rho.N mode vector kind peratom
fix rho_out_X all ave/histo 10 1000 500000 0.0 40 40 c_rho_X[*] file out.rho.X mode vector kind peratom

run		500000
Step Temp E_pair E_mol TotEng Press
0    1.0126263   -2.7784163    1.5752741   0.31549309  0.022218841
Loop time of 2449.71 on 8 procs for 500000 steps with 4994 atoms
